%mem=100GB
%nprocshared=16
%chk=Om.chk
#p opt=calcfc freq rb3lyp/6-31g(d,p) geom=connectivity scf=(maxcycle=500)

DFT opt

0 1
C       1.00892466      0.71518060      0.32171728
C       0.14658313      0.15102716     -0.62344837
C      -1.00172885      0.82350339     -1.10839768
C      -1.39688430      2.09172548     -0.67704742
C      -0.58812171      2.71640112      0.27441308
C       0.58387380      2.04579741      0.64548622
O       1.35678622      2.79056186      1.50569735
C       2.45240569      2.22461078      2.09907286
C       2.93467337      3.01428911      3.13681646
C       4.19347184      2.60220256      3.63353023
C       4.85722610      1.47688095      3.10626300
C       4.29505541      0.63496699      2.15331986
C       3.02079502      0.98904124      1.68578782
C       2.24036062      0.06641341      0.86265974
C       2.60719380     -1.27801561      0.85640960
C       2.39099759     -2.29695504     -0.14679203
C       2.34806667     -2.13686006     -1.57282955
C       2.64539280     -0.89625717     -2.18150393
C       2.63031332     -0.88122308     -3.53677464
C       2.29887831     -1.99184332     -4.32094223
C       2.03963280     -3.21322027     -3.71773832
C       2.18236956     -3.34688166     -2.31249038
C       2.39861834     -4.62235785     -1.76150847
C       2.57821039     -4.70232849     -0.41844793
C       2.53265962     -3.55973338      0.41486521
C       2.80181071     -3.48240690      1.87216753
C       3.11261685     -1.98317724      2.11828750
C       2.29481356     -1.48465492      3.31004704
H       0.26999607     -0.86061719     -0.94522123
H      -1.59391703      0.28423078     -1.87186469
H      -2.27118995      2.58828344     -1.11782847
H      -0.79276107      3.69939158      0.69395613
H       2.42467625      3.93299626      3.47532437
H       4.72492773      3.13357774      4.37584667
H       5.82975601      1.19255366      3.57137136
H       4.71479043     -0.33891859      1.82523902
H       3.59857786     -4.19743913      2.17699910
H       1.91580403     -3.83146372      2.44463842
H       4.22273682     -1.87225046      2.31288983
H       2.63009278     -0.51789405      3.71272208
H       1.25386113     -1.38524888      2.95781254
H       2.35846638     -2.21231755      4.12298776
H       2.88369389     -0.03530368     -1.55062207
H       2.79013524     -5.64765252      0.07561048
H       2.96989104      0.03130315     -4.05704953
H       1.83283978     -4.07995376     -4.30600075
H       2.31046952     -5.52751114     -2.39288298
H       2.28083232     -1.88617258     -5.42132948
