%mem=100GB
%nprocshared=16
%chk=Om.chk
#p opt=calcfc freq rb3lyp/6-31g(d,p) geom=connectivity scf=(maxcycle=500)

DFT opt

0 1
C       1.42707632      4.09263754      1.28660515
C       1.15209967      3.12180952      0.30297165
C       0.46510256      3.35903871     -0.86761862
C       0.34422334      4.67407278     -1.26200416
C       0.54693129      5.72952811     -0.37896560
C       1.01512850      5.38887295      0.87079233
O       0.90164475      6.42824240      1.72706373
C       1.24110279      6.32563852      3.03269096
C       1.14967588      7.59413892      3.69294175
C       1.44611335      7.54608588      5.03494530
C       1.93797144      6.32749835      5.59824558
C       2.18025665      5.15152143      4.85073422
C       1.82260896      5.15266579      3.51286364
C       1.96903936      3.97267359      2.65535506
C       2.39339483      2.72177616      2.97933106
C       3.12355935      1.76001316      2.12511982
C       3.89251830      2.00368209      0.90216095
C       4.15058430      3.26716994      0.38371667
C       4.75587540      3.30023583     -0.86583550
C       5.14773294      2.12062532     -1.58234293
C       4.93285724      0.87610590     -1.06269604
C       4.42924101      0.83894107      0.30516498
C       4.26969934     -0.48227857      0.86276219
C       3.77040187     -0.64449937      2.11832504
C       3.21576168      0.49062313      2.74997526
C       2.55599326      0.58026479      4.06300366
C       2.45593742      2.05997297      4.35785153
C       1.18118589      2.38659123      5.20973986
H       1.39209859      2.09260580      0.48054233
H       0.11968222      2.52804547     -1.39150922
H      -0.16150378      4.89526666     -2.24891641
H       0.39047006      6.79918785     -0.56679004
H       0.79362641      8.45771032      3.11199521
H       1.31533502      8.38665669      5.69234043
H       2.26272495      6.41976162      6.67558082
H       2.61910190      4.26661907      5.33086367
H       3.07873391      0.00185838      4.82064501
H       1.49517029      0.20725669      3.98990589
H       3.34289040      2.48826463      4.91365464
H       0.44932841      2.93774202      4.62398715
H       0.76912145      1.42541475      5.52084702
H       1.40036630      2.90368302      6.16569113
H       3.81775390      4.20815696      0.78751981
H       3.71030169     -1.63091762      2.66320247
H       5.01576690      4.21947516     -1.40760748
H       5.06116648     -0.06755673     -1.64467061
H       4.62823297     -1.34534687      0.32077304
H       5.49045218      2.18541556     -2.65842510
