%mem=100GB
%nprocshared=16
%chk=Sm.chk
#p opt=calcfc freq rb3lyp/6-31g(d,p) geom=connectivity scf=(maxcycle=500)

DFT opt

0 1
C       0.56152201      0.15861356     -2.58657243
C       0.06505003     -0.70053493     -3.65732101
C      -0.73651429     -0.20214022     -4.64863362
C      -1.16838659      1.13863850     -4.59563359
C      -0.75252884      1.98906247     -3.58951574
C       0.08962553      1.45534377     -2.55977542
S       0.51212379      2.63046025     -1.37960931
C       1.81404397      1.93051462     -0.45855320
C       2.62097287      2.84704447      0.31699065
C       3.76055028      2.35240441      0.91077175
C       4.00408489      0.96875064      0.79678710
C       3.13220465      0.05584836      0.24509001
C       2.06473227      0.53172921     -0.53905000
C       1.31875633     -0.38703620     -1.42125369
C       1.31055977     -1.73868034     -1.18201783
C       1.38843889     -2.80815324     -2.13275355
C       2.43402723     -2.98807000     -3.07488838
C       3.31431170     -1.94568748     -3.32653919
C       4.26991178     -2.15021239     -4.27506363
C       4.28714432     -3.33233419     -5.07744229
C       3.42423233     -4.37883514     -4.75133464
C       2.51495152     -4.24994714     -3.67201329
C       1.63019234     -5.32723479     -3.40542544
C       0.56825910     -5.07153713     -2.58582089
C       0.50208562     -3.84549189     -1.88114451
C      -0.23753125     -3.41330912     -0.63902067
C       0.71629774     -2.38594644      0.04020249
C      -0.06722313     -1.41864472      0.87934191
H       0.56029654     -1.69412139     -3.67057774
H      -0.96383795     -0.82299183     -5.58034766
H      -1.70404222      1.60716950     -5.41573121
H      -1.04327447      3.02224838     -3.63154555
H       2.39060193      3.97280472      0.29840843
H       4.41112809      3.01671472      1.49016846
H       4.92342451      0.53853874      1.22501741
H       3.22249871     -1.01664368      0.29302750
H      -0.55537637     -4.24782399      0.02627524
H      -1.26166119     -2.93959840     -0.78285473
H       1.50758991     -2.96243956      0.61454576
H      -0.83502101     -1.00317288      0.22831923
H      -0.47184225     -1.86775887      1.75640930
H       0.56561059     -0.54396972      1.16161799
H       3.19787444     -1.05209352     -2.77294372
H      -0.18006105     -5.83726495     -2.28498850
H       4.86400955     -1.25664928     -4.46546643
H       3.43058613     -5.29035109     -5.32890458
H       1.82047657     -6.30813114     -3.88735567
H       5.01323721     -3.42148046     -5.89738555
