%mem=100GB
%nprocshared=16
%chk=Sm.chk
#p opt=calcfc freq rb3lyp/6-31g(d,p) geom=connectivity scf=(maxcycle=500)

DFT opt

0 1
C      -1.82126707     -0.22540045     -1.59441358
C      -2.14613562      0.29577059     -2.82758676
C      -1.87947811      1.64650877     -3.09146241
C      -1.20568888      2.46217942     -2.17495979
C      -1.05707064      1.94073385     -0.91429890
C      -1.39353835      0.65726285     -0.55826015
S      -1.38079458      0.15548222      1.13719400
C      -2.96663025     -0.65976930      0.99831068
C      -3.91208185     -0.47400988      2.03867175
C      -5.20081004     -0.92338946      1.79070379
C      -5.57602320     -1.62018207      0.64084659
C      -4.65424293     -1.81876996     -0.35595934
C      -3.32450571     -1.31488057     -0.19248297
C      -2.18656665     -1.58379415     -1.11430710
C      -1.56638537     -2.77080441     -1.15248668
C      -0.31465267     -3.16634446     -1.86976640
C       0.58947857     -2.43172745     -2.68449121
C       0.69747711     -1.01903565     -2.93145247
C       1.64921550     -0.49802794     -3.72612159
C       2.59319493     -1.26553700     -4.42846904
C       2.46395752     -2.60720741     -4.25257332
C       1.54198222     -3.21759703     -3.35463740
C       1.66803255     -4.59318860     -3.06255110
C       0.86378711     -5.30654167     -2.17071267
C      -0.16904679     -4.55667720     -1.61122903
C      -1.06975854     -5.09074225     -0.58568285
C      -2.05372860     -4.00235581     -0.34402261
C      -3.50678767     -4.43898430     -0.65922880
H      -2.61961616     -0.36583078     -3.50487378
H      -2.23142161      2.05593269     -4.08015129
H      -0.83942520      3.45962434     -2.35087708
H      -0.61754999      2.60262090     -0.10053258
H      -3.65817817      0.05274049      2.93033296
H      -5.95819028     -0.63133635      2.49053394
H      -6.64370773     -1.95495071      0.47704630
H      -4.86612149     -2.35872868     -1.30508427
H      -0.55676412     -5.33590766      0.40256812
H      -1.54578374     -6.02493706     -1.02669005
H      -2.03751050     -3.77783889      0.79131850
H      -4.32464155     -4.01228913     -0.01389137
H      -3.64364830     -4.12147528     -1.72831332
H      -3.54890249     -5.53718335     -0.65863478
H      -0.03507012     -0.37553268     -2.48091067
H       0.97995410     -6.42586024     -2.03928969
H       1.71310703      0.62463300     -3.84995680
H       3.11740921     -3.28977302     -4.75126874
H       2.43465599     -5.14084592     -3.53723517
H       3.26782503     -0.74849375     -5.15601795
