%mem=100GB
%nprocshared=16
%chk=Sm.chk
#p opt=calcfc freq rb3lyp/6-31g(d,p) geom=connectivity scf=(maxcycle=500)

DFT opt

0 1
C      -0.95961244      2.22854897     -1.19133529
C      -0.47227483      2.71890752     -2.41954802
C       0.81660524      3.21243185     -2.48090287
C       1.59387285      3.41092199     -1.33290347
C       1.06295292      3.08896427     -0.06376600
C      -0.24400145      2.52473799     -0.00599535
S      -0.99924954      2.24593047      1.54109316
C      -2.71250795      2.19222852      1.13428873
C      -3.53008770      2.56231285      2.17511977
C      -4.96044426      2.48980104      2.07941115
C      -5.49418337      2.38047929      0.81261438
C      -4.65640628      2.20021397     -0.33368092
C      -3.30950579      1.93348260     -0.15512492
C      -2.30382274      1.63416390     -1.22051328
C      -2.60435921      0.75785880     -2.22715960
C      -1.80709202     -0.27938466     -2.96896465
C      -0.42355522     -0.70726066     -2.95840887
C       0.43652617     -0.37863077     -1.87502520
C       1.60588995     -1.00327895     -1.64898676
C       2.13647452     -1.90685132     -2.53538964
C       1.42313858     -2.24557672     -3.65785059
C       0.11664213     -1.70859530     -3.84807287
C      -0.76018708     -2.15315278     -4.88546179
C      -2.10151198     -1.88673669     -4.84004476
C      -2.62580713     -1.03037279     -3.86543789
C      -4.06058715     -0.66407114     -3.58455593
C      -4.02226231      0.56932247     -2.67820252
C      -4.40369882      1.75277862     -3.55932280
H      -1.11652541      2.58361693     -3.32239134
H       1.20500816      3.51656696     -3.45018865
H       2.59651224      3.82964303     -1.46239108
H       1.59172808      3.32887370      0.86367525
H      -3.21799699      2.87017133      3.18675398
H      -5.59379881      2.66634662      3.00154698
H      -6.62358450      2.37077540      0.57412781
H      -5.13117546      2.26430887     -1.27250149
H      -4.51675109     -1.57339160     -3.08088473
H      -4.58028062     -0.42802645     -4.55011404
H      -4.65759848      0.42294032     -1.78279352
H      -3.47567941      2.13520920     -4.06335255
H      -5.20164698      1.55322248     -4.30068655
H      -4.74545854      2.61299320     -2.99097477
H       0.08623720      0.37640473     -1.15699962
H      -2.78314984     -2.28374924     -5.57100010
H       2.21284566     -0.68003807     -0.77166255
H       1.77846390     -2.98165992     -4.39786355
H      -0.44178498     -2.79086267     -5.70604081
H       3.11903135     -2.40619469     -2.45496993
