%mem=100GB
%nprocshared=16
%chk=Sm.chk
#p opt=calcfc freq rb3lyp/6-31g(d,p) geom=connectivity scf=(maxcycle=500)

DFT opt

0 1
C      -1.04749076     -0.27270354      2.83911013
C       0.18198660     -0.63519650      2.31849948
C       1.36481985      0.06465555      2.45335089
C       1.30782065      1.32424542      2.99719290
C       0.08388634      1.73423937      3.59536615
C      -1.07994016      0.96559852      3.51902557
S      -2.44867144      1.68856265      4.35389579
C      -3.36119645      0.25611138      4.61788968
C      -4.32242251      0.39536378      5.68358104
C      -4.96700722     -0.70363312      6.20153791
C      -4.78240891     -1.93175955      5.50642381
C      -3.83866385     -2.12723554      4.52891067
C      -3.18280839     -0.95500446      3.96769401
C      -2.28554318     -1.11778757      2.78868939
C      -2.72995107     -2.00354525      1.81796214
C      -2.07026178     -2.76143706      0.76410430
C      -0.81076120     -3.50987532      0.79254833
C      -0.03072468     -3.72372476      1.94647908
C       1.15213359     -4.47057139      1.91590308
C       1.59637535     -5.03338569      0.69649008
C       0.84299541     -4.89249175     -0.45446695
C      -0.37059783     -4.17194276     -0.44195001
C      -1.07683601     -4.01699916     -1.63437505
C      -2.35536398     -3.49515245     -1.59894935
C      -2.86668844     -3.01236688     -0.34201500
C      -4.19911346     -2.42992599     -0.04230342
C      -4.24899555     -2.04250923      1.45226168
C      -5.01768684     -0.78099242      1.69603904
H       0.22771033     -1.55184586      1.75762615
H       2.25517586     -0.33551812      1.92043141
H       2.20203193      2.01988032      3.04638005
H       0.04792409      2.68746637      4.15304236
H      -4.43377648      1.43578264      6.11020116
H      -5.58348784     -0.73383235      7.11981830
H      -5.28312480     -2.84497288      5.92207766
H      -3.52949334     -3.04527127      4.06976381
H      -5.03352124     -3.07332680     -0.37058074
H      -4.30296407     -1.43288338     -0.56755750
H      -4.73159352     -2.82630271      2.09296894
H      -4.33328001      0.07267950      2.00055462
H      -5.62999156     -0.47657043      0.81387045
H      -5.71936256     -0.95452323      2.51714648
H      -0.35165136     -3.37997484      2.95319186
H      -2.92273441     -3.26264513     -2.48689103
H       1.76389811     -4.58468995      2.85160502
H       1.14380526     -5.41587902     -1.34641891
H      -0.66572490     -4.34032562     -2.59755706
H       2.54929889     -5.59406223      0.72996739
