%mem=100GB
%nprocshared=16
%chk=Sm.chk
#p opt=calcfc freq rb3lyp/6-31g(d,p) geom=connectivity scf=(maxcycle=500)

DFT opt

0 1
C       1.26397838      1.33135509      2.90830199
C       0.44886367      1.20638863      1.74855797
C       0.98338625      1.70052595      0.55126508
C       2.15109005      2.45535708      0.57275136
C       2.77518838      2.81648260      1.75467562
C       2.38465445      2.18026847      2.92582463
S       2.96443693      2.76502781      4.46035321
C       1.30996713      3.12150402      4.92171709
C       0.96158892      4.40856911      5.27591099
C      -0.40535820      4.67885674      5.54387693
C      -1.41072523      3.70779647      5.45166252
C      -1.03930991      2.46284394      4.98346593
C       0.30403841      2.13384620      4.77016558
C       0.75918535      0.81622078      4.23437701
C       0.83715505     -0.29034543      5.01952594
C       1.26390279     -1.69805621      4.68711788
C       1.42630668     -2.41233533      3.48080424
C       0.93490915     -1.89482555      2.26690983
C       0.56280447     -2.77261082      1.28641522
C       0.90077150     -4.12503212      1.39795420
C       1.57165757     -4.61546096      2.49769550
C       1.82716360     -3.78011616      3.59350311
C       2.27836742     -4.41106662      4.79672709
C       1.92874911     -3.80147373      5.94799023
C       1.43371394     -2.45098533      5.85633325
C       1.06195744     -1.63233574      7.04788511
C       1.11470178     -0.18162428      6.53889648
C       0.18205725      0.73255814      7.34735192
H      -0.49695997      0.69995017      1.79322899
H       0.43561693      1.49226528     -0.32509706
H       2.59227898      2.88456769     -0.39304479
H       3.55903934      3.58026617      1.72781785
H       1.56653300      5.27302740      5.34179120
H      -0.74629419      5.74679755      5.80500021
H      -2.45546955      3.80707121      5.73346300
H      -1.88989145      1.67428955      4.94365064
H       1.78413000     -1.76858602      7.89365446
H       0.05962258     -1.89749867      7.49825192
H       2.16956781      0.15880940      6.59188358
H      -0.86058093      0.41721794      7.30802176
H       0.46918874      0.77720958      8.37698467
H       0.22997569      1.73438914      6.89625251
H       0.72695181     -0.87056519      2.22888016
H       1.98611477     -4.27458465      6.92233106
H       0.11167806     -2.37784278      0.32342896
H       1.87548637     -5.64654518      2.56293865
H       2.71287690     -5.43005907      4.78104396
H       0.68887676     -4.74048552      0.52803236
