%mem=100GB
%nprocshared=16
%chk=Sm.chk
#p opt=calcfc freq rb3lyp/6-31g(d,p) geom=connectivity scf=(maxcycle=500)

DFT opt

0 1
C      -2.16922848     -0.45258638     -1.53523359
C      -2.13957640     -0.85890246     -2.89322715
C      -2.02055971      0.09281569     -3.89889204
C      -2.07073217      1.46127162     -3.46758335
C      -2.02214999      1.90976925     -2.14752669
C      -2.20070441      0.89482578     -1.15933173
S      -2.47474316      1.30057505      0.55329582
C      -2.93084562     -0.22285272      1.28993828
C      -3.54461783     -0.14354735      2.59361800
C      -3.98853683     -1.28764770      3.27022161
C      -3.79806142     -2.51558726      2.63024229
C      -3.14717052     -2.57964656      1.41800175
C      -2.69855280     -1.48235429      0.69081965
C      -2.04077943     -1.59983286     -0.61327847
C      -1.23438026     -2.62218224     -1.12794531
C      -0.19118512     -2.14674715     -2.13352944
C       0.63823983     -0.98956650     -2.16528721
C       0.52495439      0.18799060     -1.32104943
C       1.16330703      1.36274707     -1.66818588
C       2.02179876      1.43185608     -2.77519472
C       2.36198599      0.26996811     -3.44129055
C       1.56725007     -0.92801332     -3.22893525
C       1.75463136     -1.98399402     -4.12159737
C       0.90829877     -3.07767924     -4.10517427
C      -0.00066311     -3.20404485     -3.05616142
C      -0.87845122     -4.37474522     -2.67919196
C      -1.17250783     -4.18931381     -1.19046291
C      -2.51380586     -4.92340558     -1.00820472
H      -2.10262747     -1.97203609     -3.05628798
H      -1.91894292     -0.18879168     -4.94369689
H      -2.13784167      2.19830777     -4.29705676
H      -2.05938416      3.01828973     -1.89100048
H      -3.71087740      0.81440879      3.06213355
H      -4.42707833     -1.18023986      4.24344603
H      -4.16892124     -3.45223890      3.13660703
H      -2.93362292     -3.55530136      0.99359880
H      -0.43308207     -5.34044017     -2.96705863
H      -1.87863712     -4.24902050     -3.24744408
H      -0.43832574     -4.63259491     -0.45140953
H      -2.82504225     -5.06848905      0.03339662
H      -3.29672222     -4.37082665     -1.56198688
H      -2.45284154     -5.92677079     -1.52174105
H       0.06940591      0.02573172     -0.33183451
H       1.03201807     -3.84072944     -4.87747626
H       1.06866227      2.25139199     -1.04385582
H       3.19902630      0.25347978     -4.09904788
H       2.51536390     -1.85368175     -4.88978643
H       2.54433821      2.32634809     -3.02097302
