%mem=100GB
%nprocshared=16
%chk=Sm.chk
#p opt=calcfc freq rb3lyp/6-31g(d,p) geom=connectivity scf=(maxcycle=500)

DFT opt

0 1
C      -1.99373670      1.60690989     -0.35154273
C      -2.17781016      0.24018442     -0.58911258
C      -3.43754058     -0.26881274     -0.92876449
C      -4.46636678      0.57742010     -1.34473679
C      -4.30132635      1.93158186     -1.18177536
C      -3.14292253      2.41176097     -0.49050629
S      -3.45472372      3.83145032      0.44202394
C      -1.82060686      4.28895855      0.98158998
C      -1.57351285      5.55429890      1.58472439
C      -0.31965899      6.02322526      1.91957166
C       0.77383386      5.24017980      1.51337422
C       0.57138589      3.98549489      0.96488328
C      -0.72712457      3.46898286      0.74251746
C      -0.80065212      2.09109656      0.32046903
C       0.38063667      1.36884414      0.51887512
C       0.81855791      0.19254521     -0.32087877
C       0.87199305     -0.06146292     -1.71473266
C       0.76829063      1.00514757     -2.63769460
C       0.78759474      0.66535055     -3.97176017
C       0.70404114     -0.65309021     -4.41534702
C       0.66438909     -1.67154605     -3.53291774
C       0.90995449     -1.39615477     -2.15824907
C       1.00603763     -2.43979703     -1.19304362
C       1.05865954     -2.12925177      0.12924943
C       1.11892092     -0.76795319      0.56234350
C       1.51634493     -0.14483384      1.88283066
C       1.10252421      1.34081910      1.85969805
C       0.11543757      1.52304664      3.02732941
H      -1.35761357     -0.46452447     -0.42607571
H      -3.58911071     -1.35368415     -1.00878225
H      -5.39557855      0.14618430     -1.77830953
H      -5.07130716      2.67577841     -1.47158096
H      -2.47459013      6.14212547      1.77289112
H      -0.27845593      7.00983974      2.39439324
H       1.82107871      5.65203363      1.60024672
H       1.45302299      3.42050777      0.58038066
H       2.62287172     -0.15999751      1.88717502
H       1.20326779     -0.68602659      2.80940369
H       2.03208605      1.99150394      1.91596874
H      -0.75646051      0.85297266      2.91137704
H       0.53676272      1.28366389      4.03449514
H      -0.21977614      2.55730915      3.15825875
H       0.57470018      2.07666878     -2.34851442
H       1.08840683     -2.85042895      0.95028264
H       0.82522428      1.48409413     -4.73997981
H       0.48164779     -2.65784455     -3.97711966
H       0.98839324     -3.49598513     -1.53875369
H       0.62644401     -0.76583523     -5.51644375
