%mem=100GB
%nprocshared=16
%chk=Sm.chk
#p opt=calcfc freq rb3lyp/6-31g(d,p) geom=connectivity scf=(maxcycle=500)

DFT opt

0 1
C       0.36041846      0.36951672     -0.09793237
C       1.56066763      0.77628169     -0.66432550
C       1.53163691      1.63787729     -1.80257341
C       0.39536366      2.00382413     -2.46898079
C      -0.82567276      1.59706568     -1.89335012
C      -0.84700233      0.88706275     -0.67586132
S      -2.42160769      0.63451405     -0.04863071
C      -2.11464040     -0.14935719      1.47641113
C      -3.13228339     -0.13124707      2.43110267
C      -2.85941243     -0.71577264      3.69696097
C      -1.58172834     -1.21795608      3.96617650
C      -0.61595778     -1.36180732      2.97596599
C      -0.92106729     -0.83368136      1.72455972
C       0.18112152     -0.81243297      0.73832118
C       0.86503200     -1.94826060      0.54456703
C       2.14139675     -2.08299578     -0.16584169
C       3.33936023     -1.38715515      0.00566314
C       3.64294415     -0.67135730      1.21185770
C       4.87287883     -0.13048611      1.32646467
C       5.90835677     -0.31060074      0.38334517
C       5.59990088     -1.07983552     -0.70650573
C       4.35933159     -1.71429932     -0.88586836
C       4.19385439     -2.66557205     -1.89447543
C       3.12730703     -3.52513895     -1.87624446
C       2.09845217     -3.28650702     -0.91720526
C       1.10247639     -4.21315148     -0.35002328
C       0.40017411     -3.36924054      0.78782226
C      -1.05725008     -3.66436912      0.71142179
H       2.44323360      0.49439373     -0.19072209
H       2.59301093      1.84640887     -2.16776325
H       0.50479774      2.61945438     -3.36273990
H      -1.79759831      1.97639254     -2.40105097
H      -4.07533545      0.38952762      2.20973026
H      -3.57263770     -0.59849853      4.48324591
H      -1.37473911     -1.54327162      4.98652071
H       0.30555580     -1.92182665      3.19528140
H       1.65430554     -5.09123573      0.11530477
H       0.40945070     -4.69619555     -1.07878092
H       0.80854265     -3.75997421      1.76265465
H      -1.50423184     -3.17528670     -0.13289812
H      -1.19063988     -4.74900700      0.52981545
H      -1.63548564     -3.44748809      1.61638086
H       2.89456028     -0.56759124      2.02257177
H       3.01494679     -4.42940203     -2.49582552
H       5.08896408      0.50401390      2.28011125
H       6.38913806     -1.25550558     -1.46246051
H       4.95935498     -2.80364840     -2.64478005
H       6.94251331      0.04504627      0.52111944
