%mem=100GB
%nprocshared=16
%chk=Om.chk
#p opt=calcfc freq rb3lyp/6-31g(d,p) geom=connectivity scf=(maxcycle=500)

DFT opt

0 1
 C                 -0.60407078   -1.02849098    0.68283477
 C                  0.31454213   -1.30054693    1.70595080
 C                  0.62904356   -2.61270530    2.05179391
 C                  0.02478220   -3.68035774    1.38124767
 C                 -0.92484524   -3.43733422    0.39028459
 C                 -1.24111445   -2.11929152    0.07326912
 O                 -2.22168841   -1.89089726   -0.87612327
 C                 -3.02107525   -0.79508276   -0.60765692
 C                 -4.36768071   -0.89569042   -0.94766150
 C                 -5.24170446    0.12214902   -0.57444621
 C                 -4.76622694    1.20078901    0.17405999
 C                 -3.40958806    1.29782896    0.47995957
 C                 -2.48544391    0.34319854    0.03061596
 C                 -1.00355937    0.33184702    0.22363888
 C                 -0.09692850    1.30909568   -0.06990061
 C                  1.39547007    1.16222754   -0.01124292
 C                  2.26691310    0.10760459   -0.44030419
 C                  1.84137383   -1.03101966   -1.17538103
 C                  2.73745118   -1.99392045   -1.58296040
 C                  4.11216314   -1.87714742   -1.27256006
 C                  4.56777075   -0.76614508   -0.60198597
 C                  3.67583543    0.26380823   -0.19736813
 C                  4.16939388    1.46463377    0.38293017
 C                  3.32592905    2.51995963    0.64551382
 C                  1.94453121    2.36687071    0.41558333
 C                  0.87440378    3.42215687    0.49202771
 C                 -0.25177441    2.81419093   -0.39203385
 C                 -1.54607288    3.61708062   -0.30167878
 H                  0.79269144   -0.47176437    2.21689157
 H                  1.34959542   -2.80391030    2.84081662
 H                  0.27576616   -4.70330742    1.64497497
 H                 -1.43823212   -4.24328557   -0.12320914
 H                 -4.71081497   -1.78665673   -1.46257884
 H                 -6.29534042    0.04862238   -0.82590473
 H                 -5.45149528    1.96485103    0.52795343
 H                 -3.06197859    2.11741421    1.09201404
 H                  1.21349946    4.39774479    0.12620417
 H                  0.50338517    3.56796251    1.51743665
 H                  0.10259165    2.90810142   -1.43015354
 H                 -1.90484705    3.71450677    0.72691384
 H                 -1.33958470    4.63085782   -0.66400620
 H                 -2.34779795    3.20433797   -0.91490389
 H                  0.79648055   -1.12500134   -1.43920350
 H                  3.71640610    3.46361320    1.01684370
 H                  2.38438305   -2.84948143   -2.15109263
 H                  5.62757139   -0.64491189   -0.39248445
 H                  5.23784376    1.55485501    0.56074597
 H                  4.80627399   -2.65162178   -1.58545031

 1 2 1.5 6 1.5 14 1.0
 2 3 1.5 29 1.0
 3 4 1.5 30 1.0
 4 5 1.5 31 1.0
 5 6 1.5 32 1.0
 6 7 1.0
 7 8 1.0
 8 9 1.5 13 1.5
 9 10 1.5 33 1.0
 10 11 1.5 34 1.0
 11 12 1.5 35 1.0
 12 13 1.5 36 1.0
 13 14 1.0
 14 15 2.0
 15 16 1.0 27 1.0
 16 17 1.5 25 1.5
 17 18 1.5 22 1.5
 18 19 2.0 43 1.0
 19 20 1.5 45 1.0
 20 21 2.0 48 1.0
 21 22 1.5 46 1.0
 22 23 1.5
 23 24 2.0 47 1.0
 24 25 1.5 44 1.0
 25 26 1.0
 26 27 1.0 37 1.0 38 1.0
 27 28 1.0 39 1.0
 28 40 1.0 41 1.0 42 1.0
 29
 30
 31
 32
 33
 34
 35
 36
 37
 38
 39
 40
 41
 42
 43
 44
 45
 46
 47
 48

