%chk=C:\Users\Winter\Desktop\56m.chk
#p opt=calcfc freq rb3lyp/6-31g(d,p) geom=connectivity scf=maxcycle=500

DFT opt

0 1
 C                  0.00000000    0.00000000    0.00000000
 C                  0.00000000    0.00000000    1.40104547
 C                  1.19655901    0.00000000    2.11509546
 C                  2.41719175   -0.01776079    1.43717217
 C                  2.44035628   -0.06476194    0.04363216
 C                  1.23828125   -0.06896738   -0.66850403
 S                  1.25273388   -0.15068451   -2.45845095
 C                 -0.11902023   -1.28657406   -2.63498310
 C                 -0.04104684   -2.33099491   -3.56038326
 C                 -1.04180634   -3.30038616   -3.59791522
 C                 -2.08625325   -3.25373634   -2.67280681
 C                 -2.16371363   -2.20272304   -1.76083916
 C                 -1.22735620   -1.15879019   -1.77240391
 C                 -1.25084635   -0.00752483   -0.81684137
 C                 -2.22761467    0.93274453   -0.71487512
 C                 -2.29377053    2.06386640    0.26929065
 C                 -1.30265006    2.97132977    0.76626884
 C                  0.01503090    3.07852712    0.24653957
 C                  0.90985589    3.99460283    0.75296354
 C                  0.53983952    4.85484046    1.81268920
 C                 -0.74160635    4.81186980    2.31010878
 C                 -1.70081954    3.90199120    1.78842831
 C                 -3.05409720    3.94685252    2.22217222
 C                 -4.01355167    3.16163757    1.62511291
 C                 -3.62661602    2.24307435    0.62944281
 C                 -4.52296339    1.39036208   -0.23114172
 C                 -3.59357158    1.04693141   -1.42619667
 C                 -4.18177523    0.00819021   -2.37715930
 H                 -0.94926990    0.02081266    1.92633875
 H                  1.17627360    0.01339632    3.20057916
 H                  3.35111980   -0.02001487    1.99126091
 H                  3.38368687   -0.11966450   -0.49089268
 H                  0.81940596   -2.40187810   -4.21845099
 H                 -0.97761828   -4.11500975   -4.31304355
 H                 -2.83487324   -4.04004774   -2.65384435
 H                 -2.95840418   -2.18435861   -1.02388233
 H                 -5.43446965    1.91373241   -0.54070125
 H                 -4.83370350    0.46644008    0.27894577
 H                 -3.50464597    1.97831084   -2.00662957
 H                 -4.46833017   -0.91685855   -1.87305229
 H                 -5.09116882    0.43113217   -2.81975059
 H                 -3.50287245   -0.24482659   -3.19313543
 H                  0.30711567    2.44365917   -0.57901730
 H                 -5.05875540    3.25032492    1.90885774
 H                  1.90809152    4.05955317    0.33022132
 H                 -1.05058776    5.49470623    3.09750562
 H                 -3.32721386    4.65629457    2.99901885
 H                  1.25989367    5.56235799    2.21327041

 1 2 1.5 6 1.5 14 1.0
 2 3 1.5 29 1.0
 3 4 1.5 30 1.0
 4 5 1.5 31 1.0
 5 6 1.5 32 1.0
 6 7 1.0
 7 8 1.0
 8 9 1.5 13 1.5
 9 10 1.5 33 1.0
 10 11 1.5 34 1.0
 11 12 1.5 35 1.0
 12 13 1.5 36 1.0
 13 14 1.0
 14 15 2.0
 15 16 1.0 27 1.0
 16 17 1.5 25 1.5
 17 18 1.5 22 1.5
 18 19 2.0 43 1.0
 19 20 1.5 45 1.0
 20 21 2.0 48 1.0
 21 22 1.5 46 1.0
 22 23 1.5
 23 24 2.0 47 1.0
 24 25 1.5 44 1.0
 25 26 1.0
 26 27 1.0 37 1.0 38 1.0
 27 28 1.0 39 1.0
 28 40 1.0 41 1.0 42 1.0
 29
 30
 31
 32
 33
 34
 35
 36
 37
 38
 39
 40
 41
 42
 43
 44
 45
 46
 47
 48

